Version 4
SHEET 1 880 680
WIRE 64 -208 16 -208
WIRE 64 -176 64 -208
WIRE 16 -144 16 -208
WIRE 16 -16 16 -64
WIRE -176 32 -208 32
WIRE -48 32 -96 32
WIRE -16 32 -48 32
WIRE 352 32 304 32
WIRE 368 32 352 32
WIRE -208 64 -208 32
WIRE 368 64 368 32
WIRE 368 176 368 144
WIRE 368 288 368 256
FLAG -208 64 0
FLAG 368 288 0
FLAG 64 -176 0
FLAG 352 32 OUT
FLAG -48 32 IN
SYMBOL njf 80 -16 R90
SYMATTR InstName J1
SYMATTR Value 2N3819
SYMBOL voltage -80 32 M270
WINDOW 123 0 0 Left 2
WINDOW 39 0 0 Left 2
SYMATTR InstName V1
SYMATTR Value SINE(9 9 1K)
SYMBOL res 352 48 R0
SYMATTR InstName R1
SYMATTR Value 10Meg
SYMBOL voltage 368 160 R0
WINDOW 123 0 0 Left 2
WINDOW 39 0 0 Left 2
SYMATTR InstName V2
SYMATTR Value 9
SYMBOL voltage 16 -48 R180
WINDOW 123 0 0 Left 2
WINDOW 39 0 0 Left 2
SYMATTR InstName V3
SYMATTR Value 1
TEXT 32 224 Left 2 !.tran 4ms
