Version 4
SHEET 1 2428 680
WIRE -1168 -2208 -1168 -2240
WIRE -1168 -2112 -1168 -2128
WIRE -976 -2112 -1168 -2112
WIRE -1168 -2064 -1168 -2112
WIRE -1536 -2016 -1568 -2016
WIRE -1424 -2016 -1456 -2016
WIRE -1232 -2016 -1344 -2016
WIRE -1568 -2000 -1568 -2016
WIRE -2416 -1984 -2416 -2016
WIRE -2320 -1984 -2320 -2016
WIRE -2224 -1984 -2224 -2016
WIRE -2128 -1984 -2128 -2016
WIRE -2048 -1984 -2048 -2016
WIRE -976 -1904 -976 -2112
WIRE -1168 -1888 -1168 -1968
WIRE -2416 -1872 -2416 -1904
WIRE -2320 -1872 -2320 -1904
WIRE -2224 -1872 -2224 -1904
WIRE -2128 -1872 -2128 -1904
WIRE -2048 -1872 -2048 -1904
WIRE -1024 -1824 -1040 -1824
WIRE -912 -1824 -928 -1824
WIRE -912 -1792 -912 -1824
WIRE -1648 -1696 -1680 -1696
WIRE -1520 -1696 -1568 -1696
WIRE -1040 -1664 -1040 -1824
WIRE -1008 -1664 -1040 -1664
WIRE -912 -1664 -912 -1712
WIRE -912 -1664 -944 -1664
WIRE -2160 -1648 -2160 -1696
WIRE -2080 -1648 -2160 -1648
WIRE -1920 -1648 -2080 -1648
WIRE -1872 -1648 -1920 -1648
WIRE -2160 -1632 -2160 -1648
WIRE -2080 -1632 -2080 -1648
WIRE -1920 -1616 -1920 -1648
WIRE -1872 -1616 -1872 -1648
WIRE -1616 -1584 -1616 -1600
WIRE -1792 -1568 -1808 -1568
WIRE -1680 -1568 -1680 -1696
WIRE -1680 -1568 -1712 -1568
WIRE -1648 -1568 -1680 -1568
WIRE -1520 -1552 -1520 -1696
WIRE -1520 -1552 -1584 -1552
WIRE -1488 -1552 -1520 -1552
WIRE -1136 -1552 -1488 -1552
WIRE -1040 -1552 -1040 -1664
WIRE -1040 -1552 -1056 -1552
WIRE -1024 -1552 -1040 -1552
WIRE -2272 -1536 -2272 -1568
WIRE -2160 -1536 -2160 -1552
WIRE -2080 -1536 -2080 -1552
WIRE -2080 -1536 -2160 -1536
WIRE -2032 -1536 -2080 -1536
WIRE -1920 -1536 -1920 -1552
WIRE -1920 -1536 -1952 -1536
WIRE -1872 -1536 -1872 -1552
WIRE -1872 -1536 -1920 -1536
WIRE -1840 -1536 -1872 -1536
WIRE -1648 -1536 -1840 -1536
WIRE -912 -1536 -912 -1664
WIRE -912 -1536 -960 -1536
WIRE -848 -1536 -912 -1536
WIRE -1024 -1520 -1056 -1520
WIRE -2160 -1488 -2160 -1536
WIRE -1616 -1488 -1616 -1520
WIRE -992 -1488 -992 -1504
WIRE -1056 -1472 -1056 -1520
WIRE -2384 -1456 -2384 -1488
WIRE -2272 -1440 -2272 -1456
WIRE -2240 -1440 -2272 -1440
WIRE -2272 -1408 -2272 -1440
WIRE -2384 -1360 -2384 -1376
WIRE -2336 -1360 -2384 -1360
WIRE -2160 -1344 -2160 -1392
WIRE -2384 -1328 -2384 -1360
WIRE -2720 -1280 -2752 -1280
WIRE -2608 -1280 -2640 -1280
WIRE -2496 -1280 -2528 -1280
WIRE -2448 -1280 -2496 -1280
WIRE -2272 -1280 -2272 -1312
WIRE -2496 -1264 -2496 -1280
WIRE -2752 -1248 -2752 -1280
WIRE -2384 -1200 -2384 -1232
WIRE -2496 -1168 -2496 -1184
FLAG -2752 -1248 0
FLAG -2320 -1872 0
FLAG -2224 -1872 0
FLAG -2320 -2016 9V
FLAG -2224 -2016 18V
FLAG -1056 -1472 9V
FLAG -992 -1488 0
FLAG -992 -1568 18V
FLAG -848 -1536 OUT
FLAG -1616 -1488 0
FLAG -1616 -1600 18V
FLAG -1488 -1552 APPLIFIED
FLAG -2160 -1696 9V
FLAG -2160 -1344 0
FLAG -1840 -1536 IN
FLAG -2128 -1872 0
FLAG -2128 -2016 4V
FLAG -2272 -1280 0
FLAG -2272 -1568 9V
FLAG -2496 -1168 0
FLAG -2416 -1872 0
FLAG -2416 -2016 AMP_OFFSET
FLAG -1808 -1568 AMP_OFFSET
FLAG -1568 -2000 0
FLAG -2048 -1872 0
FLAG -2048 -2016 10V
FLAG -1168 -2240 18V
FLAG -1168 -1888 4V
FLAG -2384 -1200 0
FLAG -2384 -1488 4V
SYMBOL voltage -2624 -1280 M270
WINDOW 123 0 0 Left 2
WINDOW 39 0 0 Left 2
SYMATTR InstName V1
SYMATTR Value PULSE(4 9 10u 0 0 200u 50m)
SYMBOL Robertugo\\opamp5 -992 -1600 R0
SYMATTR InstName U1
SYMATTR SpiceModel LM358
SYMBOL cap -944 -1680 R90
WINDOW 0 0 32 VBottom 2
WINDOW 3 32 32 VTop 2
SYMATTR InstName C1
SYMATTR Value 47n
SYMATTR SpiceLine V=20V
SYMBOL voltage -2320 -2000 R0
WINDOW 123 0 0 Left 2
WINDOW 39 0 0 Left 2
SYMATTR InstName V2
SYMATTR Value 9
SYMBOL voltage -2224 -2000 R0
WINDOW 123 0 0 Left 2
WINDOW 39 0 0 Left 2
SYMATTR InstName V4
SYMATTR Value 18
SYMBOL res -1152 -1536 R270
WINDOW 0 32 56 VTop 2
WINDOW 3 0 56 VBottom 2
SYMATTR InstName R4
SYMATTR Value 1K
SYMBOL EXTRA\\AudioOpamp\\NS\\LM318_NS -1616 -1552 R0
SYMATTR InstName U2
SYMBOL res -1552 -1712 R90
WINDOW 0 0 56 VBottom 2
WINDOW 3 32 56 VTop 2
SYMATTR InstName R5
SYMATTR Value 1Meg
SYMBOL res -1696 -1584 R90
WINDOW 0 0 56 VBottom 2
WINDOW 3 32 56 VTop 2
SYMATTR InstName R6
SYMATTR Value 1K
SYMBOL diode -1904 -1552 R180
WINDOW 0 24 64 Left 2
WINDOW 3 24 0 Invisible 2
SYMATTR InstName D1
SYMATTR Value 1N4148
SYMBOL diode -1888 -1616 R0
WINDOW 3 24 64 Invisible 2
SYMATTR Value 1N4148
SYMATTR InstName D2
SYMBOL res -2048 -1520 R270
WINDOW 0 32 56 VTop 2
WINDOW 3 0 56 VBottom 2
SYMATTR InstName R7
SYMATTR Value 1K
SYMBOL res -2096 -1648 R0
SYMATTR InstName R8
SYMATTR Value 420
SYMBOL ind -2176 -1648 R0
SYMATTR InstName L1
SYMATTR Value 400µ
SYMATTR SpiceLine Rser=3 Cpar=40p
SYMBOL EXTRA\\IRF\\NMOSFET\\irf740lc -2192 -1440 R0
SYMATTR InstName U3
SYMBOL npn -2336 -1408 R0
SYMATTR InstName Q2
SYMATTR Value BC547C
SYMBOL res -2288 -1552 R0
SYMATTR InstName R9
SYMATTR Value 10K
SYMBOL voltage -2128 -2000 R0
WINDOW 123 0 0 Left 2
WINDOW 39 0 0 Left 2
SYMATTR InstName V5
SYMATTR Value 4
SYMBOL res -2512 -1280 R0
SYMATTR InstName R10
SYMATTR Value 1K2
SYMBOL res -2512 -1296 R90
WINDOW 0 0 56 VBottom 2
WINDOW 3 32 56 VTop 2
SYMATTR InstName R11
SYMATTR Value 10K
SYMBOL voltage -2416 -2000 R0
WINDOW 123 0 0 Left 2
WINDOW 39 0 0 Left 2
SYMATTR InstName V3
SYMATTR Value 9.00402
SYMBOL voltage -1440 -2016 M270
WINDOW 123 0 0 Left 2
WINDOW 39 0 0 Left 2
SYMATTR InstName V7
SYMATTR Value PULSE(4 9 254u 0 0 8u 50m)
SYMBOL npn -1232 -2064 R0
SYMATTR InstName Q3
SYMATTR Value BC547C
SYMBOL res -1328 -2032 R90
WINDOW 0 0 56 VBottom 2
WINDOW 3 32 56 VTop 2
SYMATTR InstName R16
SYMATTR Value 10K
SYMBOL voltage -2048 -2000 R0
WINDOW 123 0 0 Left 2
WINDOW 39 0 0 Left 2
SYMATTR InstName V8
SYMATTR Value 10
SYMBOL res -1184 -2224 R0
SYMATTR InstName R14
SYMATTR Value 10K
SYMBOL EXTRA\\ZETEX\\NMOSFET\\BS170 -976 -1856 M90
WINDOW 0 -23 54 VRight 2
WINDOW 3 4 123 VLeft 2
SYMATTR InstName U4
SYMBOL npn -2448 -1328 R0
SYMATTR InstName Q5
SYMATTR Value BC547C
SYMBOL res -2400 -1472 R0
SYMATTR InstName R13
SYMATTR Value 10K
SYMBOL res -928 -1808 R0
SYMATTR InstName R1
SYMATTR Value 10
TEXT -2208 -1192 Left 2 !.tran 300us
