Version 4
SHEET 1 880 680
WIRE -736 -352 -736 -384
WIRE -640 -352 -640 -384
WIRE -736 -240 -736 -272
WIRE -640 -240 -640 -272
WIRE 304 -96 272 -96
WIRE 400 -96 368 -96
WIRE -208 -64 -240 -64
WIRE -80 -64 -128 -64
WIRE -720 -16 -720 -64
WIRE -640 -16 -720 -16
WIRE -480 -16 -640 -16
WIRE -432 -16 -480 -16
WIRE 272 -16 272 -96
WIRE 288 -16 272 -16
WIRE 400 -16 400 -96
WIRE 400 -16 368 -16
WIRE -720 0 -720 -16
WIRE -640 0 -640 -16
WIRE -480 16 -480 -16
WIRE -432 16 -432 -16
WIRE -176 48 -176 32
WIRE -352 64 -368 64
WIRE -240 64 -240 -64
WIRE -240 64 -272 64
WIRE -208 64 -240 64
WIRE -80 80 -80 -64
WIRE -80 80 -144 80
WIRE -48 80 -80 80
WIRE 0 80 -48 80
WIRE 64 80 0 80
WIRE 176 80 160 80
WIRE 272 80 272 -16
WIRE 272 80 256 80
WIRE 288 80 272 80
WIRE -720 96 -720 80
WIRE -640 96 -640 80
WIRE -640 96 -720 96
WIRE -592 96 -640 96
WIRE -480 96 -480 80
WIRE -480 96 -512 96
WIRE -432 96 -432 80
WIRE -432 96 -480 96
WIRE -400 96 -432 96
WIRE -208 96 -400 96
WIRE 400 96 400 -16
WIRE 400 96 352 96
WIRE 464 96 464 80
WIRE 464 96 400 96
WIRE 0 112 0 80
WIRE 288 112 256 112
WIRE -720 144 -720 96
WIRE -176 144 -176 112
WIRE 320 144 320 128
WIRE 256 160 256 112
WIRE -944 192 -976 192
WIRE -800 192 -864 192
WIRE 96 192 96 128
WIRE 96 192 0 192
WIRE -976 224 -976 192
WIRE 96 224 96 192
WIRE -192 272 -240 272
WIRE -80 272 -112 272
WIRE 32 272 0 272
WIRE -720 288 -720 240
WIRE -240 288 -240 272
WIRE 96 368 96 320
FLAG -976 224 0
FLAG -240 288 0
FLAG -752 -160 IN
FLAG 96 368 0
FLAG -736 -240 0
FLAG -640 -240 0
FLAG -736 -384 9V
FLAG -640 -384 18V
FLAG 256 160 9V
FLAG 320 144 0
FLAG 320 64 18V
FLAG 464 80 OUT
FLAG -176 144 0
FLAG -176 32 18V
FLAG -48 80 APPLIFIED
FLAG -368 64 9V
FLAG -720 -64 9V
FLAG -720 288 0
FLAG -400 96 IN
SYMBOL njf 160 128 M270
SYMATTR InstName J1
SYMATTR Value 2N3819
SYMBOL voltage -848 192 M270
WINDOW 123 0 0 Left 2
WINDOW 39 0 0 Left 2
SYMATTR InstName V1
SYMATTR Value PULSE(0 9 1m 0 0 80u 100m)
SYMBOL res 272 0 R270
WINDOW 0 32 56 VTop 2
WINDOW 3 0 56 VBottom 2
SYMATTR InstName R1
SYMATTR Value 1K
SYMBOL voltage -96 272 R90
WINDOW 123 0 0 Left 2
WINDOW 39 0 0 Left 2
SYMATTR InstName V3
SYMATTR Value 5
SYMBOL res -16 96 R0
SYMATTR InstName R2
SYMATTR Value 10K
SYMBOL npn 32 224 R0
SYMATTR InstName Q1
SYMATTR Value BC547C
SYMBOL res 16 256 R90
WINDOW 0 0 56 VBottom 2
WINDOW 3 32 56 VTop 2
SYMATTR InstName R3
SYMATTR Value 1K
SYMBOL Robertugo\\opamp5 320 32 R0
SYMATTR InstName U1
SYMATTR SpiceModel LM358
SYMBOL cap 368 -112 R90
WINDOW 0 0 32 VBottom 2
WINDOW 3 32 32 VTop 2
SYMATTR InstName C1
SYMATTR Value 100n
SYMATTR SpiceLine V=20V
SYMBOL voltage -736 -368 R0
WINDOW 123 0 0 Left 2
WINDOW 39 0 0 Left 2
SYMATTR InstName V2
SYMATTR Value 9
SYMBOL voltage -640 -368 R0
WINDOW 123 0 0 Left 2
WINDOW 39 0 0 Left 2
SYMATTR InstName V4
SYMATTR Value 18
SYMBOL res 160 96 R270
WINDOW 0 32 56 VTop 2
WINDOW 3 0 56 VBottom 2
SYMATTR InstName R4
SYMATTR Value 1K
SYMBOL EXTRA\\AudioOpamp\\NS\\LM318_NS -176 80 R0
SYMATTR InstName U2
SYMBOL res -112 -80 R90
WINDOW 0 0 56 VBottom 2
WINDOW 3 32 56 VTop 2
SYMATTR InstName R5
SYMATTR Value 1Meg
SYMBOL res -256 48 R90
WINDOW 0 0 56 VBottom 2
WINDOW 3 32 56 VTop 2
SYMATTR InstName R6
SYMATTR Value 1K
SYMBOL diode -464 80 R180
WINDOW 0 24 64 Left 2
WINDOW 3 24 0 Invisible 2
SYMATTR InstName D1
SYMATTR Value 1N4148
SYMBOL diode -448 16 R0
WINDOW 3 24 64 Invisible 2
SYMATTR Value 1N4148
SYMATTR InstName D2
SYMBOL res -608 112 R270
WINDOW 0 32 56 VTop 2
WINDOW 3 0 56 VBottom 2
SYMATTR InstName R7
SYMATTR Value 1K
SYMBOL res -656 -16 R0
SYMATTR InstName R8
SYMATTR Value 400
SYMBOL ind -736 -16 R0
SYMATTR InstName L1
SYMATTR Value 400µ
SYMATTR SpiceLine Rser=3 Cpar=40p
SYMBOL EXTRA\\IRF\\NMOSFET\\irf740lc -752 192 R0
SYMATTR InstName U3
TEXT -624 440 Left 2 !.tran 400ms
