Version 4
SHEET 1 880 680
WIRE 400 -96 336 -96
WIRE 272 -16 272 -96
WIRE 400 -16 400 -96
WIRE 400 -16 352 -16
WIRE -688 16 -688 -16
WIRE -592 16 -592 -16
WIRE -432 80 -464 80
WIRE -16 80 -352 80
WIRE 0 80 -16 80
WIRE 64 80 0 80
WIRE 176 80 160 80
WIRE 272 80 272 -16
WIRE 272 80 256 80
WIRE 288 80 272 80
WIRE 400 96 400 -16
WIRE 400 96 352 96
WIRE 464 96 464 80
WIRE 464 96 400 96
WIRE -464 112 -464 80
WIRE 0 112 0 80
WIRE 288 112 256 112
WIRE -688 128 -688 96
WIRE -592 128 -592 96
WIRE 320 144 320 128
WIRE 256 160 256 112
WIRE 96 192 96 128
WIRE 96 192 0 192
WIRE 96 224 96 192
WIRE -192 272 -240 272
WIRE -80 272 -112 272
WIRE 32 272 0 272
WIRE -240 288 -240 272
WIRE 96 368 96 320
FLAG -464 112 0
FLAG -240 288 0
FLAG -16 80 IN
FLAG 96 368 0
FLAG -688 128 0
FLAG -592 128 0
FLAG -688 -16 9V
FLAG -592 -16 18V
FLAG 256 160 9V
FLAG 320 144 0
FLAG 320 64 18V
FLAG 464 80 OUT
FLAG 160 80 SELECTED
SYMBOL njf 160 128 M270
SYMATTR InstName J1
SYMATTR Value 2N3819
SYMBOL voltage -336 80 M270
WINDOW 123 0 0 Left 2
WINDOW 39 0 0 Left 2
SYMATTR InstName V1
SYMATTR Value SINE(9 9 1K)
SYMBOL res 256 0 R270
WINDOW 0 32 56 VTop 2
WINDOW 3 0 56 VBottom 2
SYMATTR InstName R1
SYMATTR Value 1K
SYMBOL voltage -96 272 R90
WINDOW 123 0 0 Left 2
WINDOW 39 0 0 Left 2
SYMATTR InstName V3
SYMATTR Value 5
SYMBOL res -16 96 R0
SYMATTR InstName R2
SYMATTR Value 10K
SYMBOL npn 32 224 R0
SYMATTR InstName Q1
SYMATTR Value BC547C
SYMBOL res 16 256 R90
WINDOW 0 0 56 VBottom 2
WINDOW 3 32 56 VTop 2
SYMATTR InstName R3
SYMATTR Value 1K
SYMBOL Robertugo\\opamp5 320 32 R0
SYMATTR InstName U1
SYMATTR SpiceModel LM358
SYMBOL cap 336 -112 R90
WINDOW 0 0 32 VBottom 2
WINDOW 3 32 32 VTop 2
SYMATTR InstName C1
SYMATTR Value 100n
SYMATTR SpiceLine V=20V
SYMBOL voltage -688 0 R0
WINDOW 123 0 0 Left 2
WINDOW 39 0 0 Left 2
SYMATTR InstName V2
SYMATTR Value 9
SYMBOL voltage -592 0 R0
WINDOW 123 0 0 Left 2
WINDOW 39 0 0 Left 2
SYMATTR InstName V4
SYMATTR Value 18
SYMBOL res 160 96 R270
WINDOW 0 32 56 VTop 2
WINDOW 3 0 56 VBottom 2
SYMATTR InstName R4
SYMATTR Value 1K
TEXT -376 224 Left 2 !.tran 4ms
